<?xml version="1.0" encoding="UTF-8"?>

<!-- generated on 2026-05-01T16:27:17.396123+05:30 by Eclipse SUMO netconvert 1.26.0
<netconvertConfiguration xmlns:xsi="http://www.w3.org/2001/XMLSchema-instance" xsi:noNamespaceSchemaLocation="http://sumo.dlr.de/xsd/netconvertConfiguration.xsd">

    <input>
        <node-files value="/home/ghanatava/PCSE26-35/src/sumo/intersection.nod.xml"/>
        <edge-files value="/home/ghanatava/PCSE26-35/src/sumo/intersection.edg.xml"/>
    </input>

    <output>
        <output-file value="/home/ghanatava/PCSE26-35/src/sumo/intersection.net.xml"/>
    </output>

    <tls_building>
        <tls.default-type value="static"/>
    </tls_building>

    <report>
        <no-warnings value="true"/>
    </report>

</netconvertConfiguration>
-->

<net version="1.20" junctionCornerDetail="5" limitTurnSpeed="5.50" xmlns:xsi="http://www.w3.org/2001/XMLSchema-instance" xsi:noNamespaceSchemaLocation="http://sumo.dlr.de/xsd/net_file.xsd">

    <location netOffset="300.00,300.00" convBoundary="0.00,0.00,600.00,600.00" origBoundary="-300.00,-300.00,300.00,300.00" projParameter="!"/>

    <edge id=":centre_0" function="internal">
        <lane id=":centre_0_0" index="0" speed="6.51" length="9.03" shape="295.20,310.40 294.85,307.95 293.80,306.20 292.05,305.15 289.60,304.80"/>
    </edge>
    <edge id=":centre_1" function="internal">
        <lane id=":centre_1_0" index="0" speed="13.89" length="20.80" shape="295.20,310.40 295.20,289.60"/>
        <lane id=":centre_1_1" index="1" speed="13.89" length="20.80" shape="298.40,310.40 298.40,289.60"/>
    </edge>
    <edge id=":centre_3" function="internal">
        <lane id=":centre_3_0" index="0" speed="9.26" length="5.01" shape="298.40,310.40 299.11,305.44"/>
    </edge>
    <edge id=":centre_4" function="internal">
        <lane id=":centre_4_0" index="0" speed="3.65" length="1.44" shape="298.40,310.40 299.20,309.20"/>
    </edge>
    <edge id=":centre_20" function="internal">
        <lane id=":centre_20_0" index="0" speed="9.26" length="14.34" shape="299.11,305.44 299.15,305.15 301.40,301.40 305.15,299.15 310.40,298.40"/>
    </edge>
    <edge id=":centre_21" function="internal">
        <lane id=":centre_21_0" index="0" speed="3.65" length="3.23" shape="299.20,309.20 300.00,308.80 300.80,309.20 301.60,310.40"/>
    </edge>
    <edge id=":centre_5" function="internal">
        <lane id=":centre_5_0" index="0" speed="6.51" length="9.03" shape="310.40,304.80 307.95,305.15 306.20,306.20 305.15,307.95 304.80,310.40"/>
    </edge>
    <edge id=":centre_6" function="internal">
        <lane id=":centre_6_0" index="0" speed="13.89" length="20.80" shape="310.40,304.80 289.60,304.80"/>
        <lane id=":centre_6_1" index="1" speed="13.89" length="20.80" shape="310.40,301.60 289.60,301.60"/>
    </edge>
    <edge id=":centre_8" function="internal">
        <lane id=":centre_8_0" index="0" speed="9.26" length="5.01" shape="310.40,301.60 305.44,300.89"/>
    </edge>
    <edge id=":centre_9" function="internal">
        <lane id=":centre_9_0" index="0" speed="3.65" length="1.44" shape="310.40,301.60 309.20,300.80"/>
    </edge>
    <edge id=":centre_22" function="internal">
        <lane id=":centre_22_0" index="0" speed="9.26" length="14.34" shape="305.44,300.89 305.15,300.85 301.40,298.60 299.15,294.85 298.40,289.60"/>
    </edge>
    <edge id=":centre_23" function="internal">
        <lane id=":centre_23_0" index="0" speed="3.65" length="3.23" shape="309.20,300.80 308.80,300.00 309.20,299.20 310.40,298.40"/>
    </edge>
    <edge id=":centre_10" function="internal">
        <lane id=":centre_10_0" index="0" speed="6.51" length="9.03" shape="304.80,289.60 305.15,292.05 306.20,293.80 307.95,294.85 310.40,295.20"/>
    </edge>
    <edge id=":centre_11" function="internal">
        <lane id=":centre_11_0" index="0" speed="13.89" length="20.80" shape="304.80,289.60 304.80,310.40"/>
        <lane id=":centre_11_1" index="1" speed="13.89" length="20.80" shape="301.60,289.60 301.60,310.40"/>
    </edge>
    <edge id=":centre_13" function="internal">
        <lane id=":centre_13_0" index="0" speed="9.26" length="5.01" shape="301.60,289.60 300.89,294.56"/>
    </edge>
    <edge id=":centre_14" function="internal">
        <lane id=":centre_14_0" index="0" speed="3.65" length="1.44" shape="301.60,289.60 300.80,290.80"/>
    </edge>
    <edge id=":centre_24" function="internal">
        <lane id=":centre_24_0" index="0" speed="9.26" length="14.34" shape="300.89,294.56 300.85,294.85 298.60,298.60 294.85,300.85 289.60,301.60"/>
    </edge>
    <edge id=":centre_25" function="internal">
        <lane id=":centre_25_0" index="0" speed="3.65" length="3.23" shape="300.80,290.80 300.00,291.20 299.20,290.80 298.40,289.60"/>
    </edge>
    <edge id=":centre_15" function="internal">
        <lane id=":centre_15_0" index="0" speed="6.51" length="9.03" shape="289.60,295.20 292.05,294.85 293.80,293.80 294.85,292.05 295.20,289.60"/>
    </edge>
    <edge id=":centre_16" function="internal">
        <lane id=":centre_16_0" index="0" speed="13.89" length="20.80" shape="289.60,295.20 310.40,295.20"/>
        <lane id=":centre_16_1" index="1" speed="13.89" length="20.80" shape="289.60,298.40 310.40,298.40"/>
    </edge>
    <edge id=":centre_18" function="internal">
        <lane id=":centre_18_0" index="0" speed="9.26" length="5.01" shape="289.60,298.40 294.56,299.11"/>
    </edge>
    <edge id=":centre_19" function="internal">
        <lane id=":centre_19_0" index="0" speed="3.65" length="1.44" shape="289.60,298.40 290.80,299.20"/>
    </edge>
    <edge id=":centre_26" function="internal">
        <lane id=":centre_26_0" index="0" speed="9.26" length="14.34" shape="294.56,299.11 294.85,299.15 298.60,301.40 300.85,305.15 301.60,310.40"/>
    </edge>
    <edge id=":centre_27" function="internal">
        <lane id=":centre_27_0" index="0" speed="3.65" length="3.23" shape="290.80,299.20 291.20,300.00 290.80,300.80 289.60,301.60"/>
    </edge>
    <edge id=":east_0" function="internal">
        <lane id=":east_0_0" index="0" speed="3.65" length="4.67" shape="600.00,298.40 601.20,299.20 601.60,300.00 601.20,300.80 600.00,301.60"/>
    </edge>
    <edge id=":north_0" function="internal">
        <lane id=":north_0_0" index="0" speed="3.65" length="4.67" shape="301.60,600.00 300.80,601.20 300.00,601.60 299.20,601.20 298.40,600.00"/>
    </edge>
    <edge id=":south_0" function="internal">
        <lane id=":south_0_0" index="0" speed="3.65" length="4.67" shape="298.40,0.00 299.20,-1.20 300.00,-1.60 300.80,-1.20 301.60,0.00"/>
    </edge>
    <edge id=":west_0" function="internal">
        <lane id=":west_0_0" index="0" speed="3.65" length="4.67" shape="0.00,301.60 -1.20,300.80 -1.60,300.00 -1.20,299.20 0.00,298.40"/>
    </edge>

    <edge id="eo" from="east" to="centre" priority="-1">
        <lane id="eo_0" index="0" speed="13.89" length="289.60" shape="600.00,304.80 310.40,304.80"/>
        <lane id="eo_1" index="1" speed="13.89" length="289.60" shape="600.00,301.60 310.40,301.60"/>
    </edge>
    <edge id="ew" from="centre" to="east" priority="-1">
        <lane id="ew_0" index="0" speed="13.89" length="289.60" shape="310.40,295.20 600.00,295.20"/>
        <lane id="ew_1" index="1" speed="13.89" length="289.60" shape="310.40,298.40 600.00,298.40"/>
    </edge>
    <edge id="no" from="north" to="centre" priority="-1">
        <lane id="no_0" index="0" speed="13.89" length="289.60" shape="295.20,600.00 295.20,310.40"/>
        <lane id="no_1" index="1" speed="13.89" length="289.60" shape="298.40,600.00 298.40,310.40"/>
    </edge>
    <edge id="ns" from="centre" to="north" priority="-1">
        <lane id="ns_0" index="0" speed="13.89" length="289.60" shape="304.80,310.40 304.80,600.00"/>
        <lane id="ns_1" index="1" speed="13.89" length="289.60" shape="301.60,310.40 301.60,600.00"/>
    </edge>
    <edge id="oe" from="centre" to="west" priority="-1">
        <lane id="oe_0" index="0" speed="13.89" length="289.60" shape="289.60,304.80 0.00,304.80"/>
        <lane id="oe_1" index="1" speed="13.89" length="289.60" shape="289.60,301.60 0.00,301.60"/>
    </edge>
    <edge id="on" from="centre" to="south" priority="-1">
        <lane id="on_0" index="0" speed="13.89" length="289.60" shape="295.20,289.60 295.20,0.00"/>
        <lane id="on_1" index="1" speed="13.89" length="289.60" shape="298.40,289.60 298.40,0.00"/>
    </edge>
    <edge id="sn" from="south" to="centre" priority="-1">
        <lane id="sn_0" index="0" speed="13.89" length="289.60" shape="304.80,0.00 304.80,289.60"/>
        <lane id="sn_1" index="1" speed="13.89" length="289.60" shape="301.60,0.00 301.60,289.60"/>
    </edge>
    <edge id="we" from="west" to="centre" priority="-1">
        <lane id="we_0" index="0" speed="13.89" length="289.60" shape="0.00,295.20 289.60,295.20"/>
        <lane id="we_1" index="1" speed="13.89" length="289.60" shape="0.00,298.40 289.60,298.40"/>
    </edge>

    <tlLogic id="centre" type="static" programID="0" offset="0">
        <phase duration="42" state="GGGggrrrrrGGGggrrrrr"/>
        <phase duration="3"  state="yyyyyrrrrryyyyyrrrrr"/>
        <phase duration="42" state="rrrrrGGGggrrrrrGGGgg"/>
        <phase duration="3"  state="rrrrryyyyyrrrrryyyyy"/>
    </tlLogic>

    <junction id="centre" type="traffic_light" x="300.00" y="300.00" incLanes="no_0 no_1 eo_0 eo_1 sn_0 sn_1 we_0 we_1" intLanes=":centre_0_0 :centre_1_0 :centre_1_1 :centre_20_0 :centre_21_0 :centre_5_0 :centre_6_0 :centre_6_1 :centre_22_0 :centre_23_0 :centre_10_0 :centre_11_0 :centre_11_1 :centre_24_0 :centre_25_0 :centre_15_0 :centre_16_0 :centre_16_1 :centre_26_0 :centre_27_0" shape="293.60,310.40 306.40,310.40 306.84,308.18 307.40,307.40 308.18,306.84 309.18,306.51 310.40,306.40 310.40,293.60 308.18,293.16 307.40,292.60 306.84,291.82 306.51,290.82 306.40,289.60 293.60,289.60 293.16,291.82 292.60,292.60 291.82,293.16 290.82,293.49 289.60,293.60 289.60,306.40 291.82,306.84 292.60,307.40 293.16,308.18 293.49,309.18">
        <request index="0"  response="00000000000000000000" foes="00000000000011000000" cont="0"/>
        <request index="1"  response="01000000000000000000" foes="01111110000111000000" cont="0"/>
        <request index="2"  response="01000000000100000000" foes="01111110000111000000" cont="0"/>
        <request index="3"  response="01000001100100000000" foes="01110001101111000000" cont="1"/>
        <request index="4"  response="01000001100000000000" foes="01000001100000000000" cont="1"/>
        <request index="5"  response="00000001100000000000" foes="00000001100000000000" cont="0"/>
        <request index="6"  response="00000011100000001111" foes="11000011100000001111" cont="0"/>
        <request index="7"  response="00000011100000001111" foes="11000011100000001111" cont="0"/>
        <request index="8"  response="00110011100000001110" foes="00110111100000001110" cont="1"/>
        <request index="9"  response="00110000000000001000" foes="00110000000000001000" cont="1"/>
        <request index="10" response="00000000000000000000" foes="00110000000000000000" cont="0"/>
        <request index="11" response="00000000000100000000" foes="01110000000111111000" cont="0"/>
        <request index="12" response="01000000000100000000" foes="01110000000111111000" cont="0"/>
        <request index="13" response="01000000000100000110" foes="11110000000111000110" cont="1"/>
        <request index="14" response="00000000000100000110" foes="00000000000100000110" cont="1"/>
        <request index="15" response="00000000000000000110" foes="00000000000000000110" cont="0"/>
        <request index="16" response="00000011110000001110" foes="00000011111100001110" cont="0"/>
        <request index="17" response="00000011110000001110" foes="00000011111100001110" cont="0"/>
        <request index="18" response="00000011100011001110" foes="00000011100011011110" cont="1"/>
        <request index="19" response="00000010000011000000" foes="00000010000011000000" cont="1"/>
    </junction>
    <junction id="east" type="priority" x="600.00" y="300.00" incLanes="ew_0 ew_1" intLanes=":east_0_0" shape="600.00,300.00 600.00,293.60 600.00,300.00">
        <request index="0" response="0" foes="0" cont="0"/>
    </junction>
    <junction id="north" type="priority" x="300.00" y="600.00" incLanes="ns_0 ns_1" intLanes=":north_0_0" shape="300.00,600.00 306.40,600.00 300.00,600.00">
        <request index="0" response="0" foes="0" cont="0"/>
    </junction>
    <junction id="south" type="priority" x="300.00" y="0.00" incLanes="on_0 on_1" intLanes=":south_0_0" shape="300.00,0.00 293.60,0.00 300.00,0.00">
        <request index="0" response="0" foes="0" cont="0"/>
    </junction>
    <junction id="west" type="priority" x="0.00" y="300.00" incLanes="oe_0 oe_1" intLanes=":west_0_0" shape="0.00,300.00 0.00,306.40 0.00,300.00">
        <request index="0" response="0" foes="0" cont="0"/>
    </junction>

    <junction id=":centre_20_0" type="internal" x="299.11" y="305.44" incLanes=":centre_3_0 sn_0 sn_1" intLanes=":centre_6_0 :centre_6_1 :centre_8_0 :centre_9_0 :centre_10_0 :centre_11_0 :centre_11_1 :centre_16_0 :centre_16_1 :centre_18_0"/>
    <junction id=":centre_21_0" type="internal" x="299.20" y="309.20" incLanes=":centre_4_0 eo_0 sn_0 sn_1 we_1" intLanes=":centre_5_0 :centre_11_0 :centre_11_1 :centre_18_0"/>
    <junction id=":centre_22_0" type="internal" x="305.44" y="300.89" incLanes=":centre_8_0 we_0 we_1" intLanes=":centre_1_0 :centre_1_1 :centre_3_0 :centre_11_0 :centre_11_1 :centre_13_0 :centre_14_0 :centre_15_0 :centre_16_0 :centre_16_1"/>
    <junction id=":centre_23_0" type="internal" x="309.20" y="300.80" incLanes=":centre_9_0 no_1 sn_0 we_0 we_1" intLanes=":centre_3_0 :centre_10_0 :centre_16_0 :centre_16_1"/>
    <junction id=":centre_24_0" type="internal" x="300.89" y="294.56" incLanes=":centre_13_0 no_0 no_1" intLanes=":centre_0_0 :centre_1_0 :centre_1_1 :centre_6_0 :centre_6_1 :centre_8_0 :centre_16_0 :centre_16_1 :centre_18_0 :centre_19_0"/>
    <junction id=":centre_25_0" type="internal" x="300.80" y="290.80" incLanes=":centre_14_0 eo_1 no_0 no_1 we_0" intLanes=":centre_1_0 :centre_1_1 :centre_8_0 :centre_15_0"/>
    <junction id=":centre_26_0" type="internal" x="294.56" y="299.11" incLanes=":centre_18_0 eo_0 eo_1" intLanes=":centre_1_0 :centre_1_1 :centre_3_0 :centre_4_0 :centre_5_0 :centre_6_0 :centre_6_1 :centre_11_0 :centre_11_1 :centre_13_0"/>
    <junction id=":centre_27_0" type="internal" x="290.80" y="299.20" incLanes=":centre_19_0 eo_0 eo_1 no_0 sn_1" intLanes=":centre_0_0 :centre_6_0 :centre_6_1 :centre_13_0"/>

    <connection from="eo" to="ns" fromLane="0" toLane="0" via=":centre_5_0" tl="centre" linkIndex="5" dir="r" state="o"/>
    <connection from="eo" to="oe" fromLane="0" toLane="0" via=":centre_6_0" tl="centre" linkIndex="6" dir="s" state="o"/>
    <connection from="eo" to="oe" fromLane="1" toLane="1" via=":centre_6_1" tl="centre" linkIndex="7" dir="s" state="o"/>
    <connection from="eo" to="on" fromLane="1" toLane="1" via=":centre_8_0" tl="centre" linkIndex="8" dir="l" state="o"/>
    <connection from="eo" to="ew" fromLane="1" toLane="1" via=":centre_9_0" tl="centre" linkIndex="9" dir="t" state="o"/>
    <connection from="ew" to="eo" fromLane="1" toLane="1" via=":east_0_0" dir="t" state="M"/>
    <connection from="no" to="oe" fromLane="0" toLane="0" via=":centre_0_0" tl="centre" linkIndex="0" dir="r" state="O"/>
    <connection from="no" to="on" fromLane="0" toLane="0" via=":centre_1_0" tl="centre" linkIndex="1" dir="s" state="O"/>
    <connection from="no" to="on" fromLane="1" toLane="1" via=":centre_1_1" tl="centre" linkIndex="2" dir="s" state="O"/>
    <connection from="no" to="ew" fromLane="1" toLane="1" via=":centre_3_0" tl="centre" linkIndex="3" dir="l" state="o"/>
    <connection from="no" to="ns" fromLane="1" toLane="1" via=":centre_4_0" tl="centre" linkIndex="4" dir="t" state="o"/>
    <connection from="ns" to="no" fromLane="1" toLane="1" via=":north_0_0" dir="t" state="M"/>
    <connection from="oe" to="we" fromLane="1" toLane="1" via=":west_0_0" dir="t" state="M"/>
    <connection from="on" to="sn" fromLane="1" toLane="1" via=":south_0_0" dir="t" state="M"/>
    <connection from="sn" to="ew" fromLane="0" toLane="0" via=":centre_10_0" tl="centre" linkIndex="10" dir="r" state="O"/>
    <connection from="sn" to="ns" fromLane="0" toLane="0" via=":centre_11_0" tl="centre" linkIndex="11" dir="s" state="O"/>
    <connection from="sn" to="ns" fromLane="1" toLane="1" via=":centre_11_1" tl="centre" linkIndex="12" dir="s" state="O"/>
    <connection from="sn" to="oe" fromLane="1" toLane="1" via=":centre_13_0" tl="centre" linkIndex="13" dir="l" state="o"/>
    <connection from="sn" to="on" fromLane="1" toLane="1" via=":centre_14_0" tl="centre" linkIndex="14" dir="t" state="o"/>
    <connection from="we" to="on" fromLane="0" toLane="0" via=":centre_15_0" tl="centre" linkIndex="15" dir="r" state="o"/>
    <connection from="we" to="ew" fromLane="0" toLane="0" via=":centre_16_0" tl="centre" linkIndex="16" dir="s" state="o"/>
    <connection from="we" to="ew" fromLane="1" toLane="1" via=":centre_16_1" tl="centre" linkIndex="17" dir="s" state="o"/>
    <connection from="we" to="ns" fromLane="1" toLane="1" via=":centre_18_0" tl="centre" linkIndex="18" dir="l" state="o"/>
    <connection from="we" to="oe" fromLane="1" toLane="1" via=":centre_19_0" tl="centre" linkIndex="19" dir="t" state="o"/>

    <connection from=":centre_0" to="oe" fromLane="0" toLane="0" dir="r" state="M"/>
    <connection from=":centre_1" to="on" fromLane="0" toLane="0" dir="s" state="M"/>
    <connection from=":centre_1" to="on" fromLane="1" toLane="1" dir="s" state="M"/>
    <connection from=":centre_3" to="ew" fromLane="0" toLane="1" via=":centre_20_0" dir="l" state="m"/>
    <connection from=":centre_20" to="ew" fromLane="0" toLane="1" dir="l" state="M"/>
    <connection from=":centre_4" to="ns" fromLane="0" toLane="1" via=":centre_21_0" dir="t" state="m"/>
    <connection from=":centre_21" to="ns" fromLane="0" toLane="1" dir="t" state="M"/>
    <connection from=":centre_5" to="ns" fromLane="0" toLane="0" dir="r" state="M"/>
    <connection from=":centre_6" to="oe" fromLane="0" toLane="0" dir="s" state="M"/>
    <connection from=":centre_6" to="oe" fromLane="1" toLane="1" dir="s" state="M"/>
    <connection from=":centre_8" to="on" fromLane="0" toLane="1" via=":centre_22_0" dir="l" state="m"/>
    <connection from=":centre_22" to="on" fromLane="0" toLane="1" dir="l" state="M"/>
    <connection from=":centre_9" to="ew" fromLane="0" toLane="1" via=":centre_23_0" dir="t" state="m"/>
    <connection from=":centre_23" to="ew" fromLane="0" toLane="1" dir="t" state="M"/>
    <connection from=":centre_10" to="ew" fromLane="0" toLane="0" dir="r" state="M"/>
    <connection from=":centre_11" to="ns" fromLane="0" toLane="0" dir="s" state="M"/>
    <connection from=":centre_11" to="ns" fromLane="1" toLane="1" dir="s" state="M"/>
    <connection from=":centre_13" to="oe" fromLane="0" toLane="1" via=":centre_24_0" dir="l" state="m"/>
    <connection from=":centre_24" to="oe" fromLane="0" toLane="1" dir="l" state="M"/>
    <connection from=":centre_14" to="on" fromLane="0" toLane="1" via=":centre_25_0" dir="t" state="m"/>
    <connection from=":centre_25" to="on" fromLane="0" toLane="1" dir="t" state="M"/>
    <connection from=":centre_15" to="on" fromLane="0" toLane="0" dir="r" state="M"/>
    <connection from=":centre_16" to="ew" fromLane="0" toLane="0" dir="s" state="M"/>
    <connection from=":centre_16" to="ew" fromLane="1" toLane="1" dir="s" state="M"/>
    <connection from=":centre_18" to="ns" fromLane="0" toLane="1" via=":centre_26_0" dir="l" state="m"/>
    <connection from=":centre_26" to="ns" fromLane="0" toLane="1" dir="l" state="M"/>
    <connection from=":centre_19" to="oe" fromLane="0" toLane="1" via=":centre_27_0" dir="t" state="m"/>
    <connection from=":centre_27" to="oe" fromLane="0" toLane="1" dir="t" state="M"/>
    <connection from=":east_0" to="eo" fromLane="0" toLane="1" dir="t" state="M"/>
    <connection from=":north_0" to="no" fromLane="0" toLane="1" dir="t" state="M"/>
    <connection from=":south_0" to="sn" fromLane="0" toLane="1" dir="t" state="M"/>
    <connection from=":west_0" to="we" fromLane="0" toLane="1" dir="t" state="M"/>

</net>
