<edges>
  <edge id="we" from="west"   to="centre" numLanes="2" speed="13.89"/>
  <edge id="ew" from="centre" to="east"   numLanes="2" speed="13.89"/>
  <edge id="eo" from="east"   to="centre" numLanes="2" speed="13.89"/>
  <edge id="oe" from="centre" to="west"   numLanes="2" speed="13.89"/>
  <edge id="sn" from="south"  to="centre" numLanes="2" speed="13.89"/>
  <edge id="ns" from="centre" to="north"  numLanes="2" speed="13.89"/>
  <edge id="no" from="north"  to="centre" numLanes="2" speed="13.89"/>
  <edge id="on" from="centre" to="south"  numLanes="2" speed="13.89"/>
</edges>