<configuration>
  <input>
    <net-file value="intersection.net.xml"/>
    <route-files value="intersection.rou.xml"/>
  </input>
  <time>
    <begin value="0"/>
    <end value="100"/>
    <step-length value="0.1"/>
  </time>
  <output>
    <fcd-output value="fcd_traces.xml"/>
  </output>
</configuration>