<nodes>
  <node id="centre" x="0"    y="0"    type="traffic_light"/>
  <node id="west"   x="-300" y="0"    type="priority"/>
  <node id="east"   x="300"  y="0"    type="priority"/>
  <node id="south"  x="0"    y="-300" type="priority"/>
  <node id="north"  x="0"    y="300"  type="priority"/>
</nodes>